
  EPA STORM WATER MANAGEMENT MODEL - VERSION 5.1 (Build 5.1.015)
  --------------------------------------------------------------

  
  *********************
  Rainfall File Summary
  *********************
  Station    First        Last         Recording   Periods    Periods    Periods
  ID         Date         Date         Frequency  w/Precip    Missing    Malfunc.
  -------------------------------------------------------------------------------
  Santander  10/05/2009   05/28/2019      10 min     22302          0          0

  
  *********************************************************
  NOTE: The summary statistics displayed in this report are
  based on results found at every computational time step,  
  not just on results from each reporting time step.
  *********************************************************
  
  ****************
  Analysis Options
  ****************
  Flow Units ............... CMS
  Process Models:
    Rainfall/Runoff ........ YES
    RDII ................... NO
    Snowmelt ............... NO
    Groundwater ............ NO
    Flow Routing ........... YES
    Ponding Allowed ........ NO
    Water Quality .......... YES
  Infiltration Method ...... CURVE_NUMBER
  Flow Routing Method ...... DYNWAVE
  Surcharge Method ......... EXTRAN
  Starting Date ............ 01/01/2018 00:00:00
  Ending Date .............. 01/01/2019 06:00:00
  Antecedent Dry Days ...... 0.0
  Report Time Step ......... 00:10:00
  Wet Time Step ............ 00:05:00
  Dry Time Step ............ 01:00:00
  Routing Time Step ........ 30.00 sec
  Variable Time Step ....... YES
  Maximum Trials ........... 8
  Number of Threads ........ 1
  Head Tolerance ........... 0.001500 m
  
  
  **************************        Volume         Depth
  Runoff Quantity Continuity     hectare-m            mm
  **************************     ---------       -------
  Total Precipitation ......       108.230      1082.300
  Evaporation Loss .........        30.565       305.650
  Infiltration Loss ........        11.608       116.081
  Surface Runoff ...........        66.269       662.687
  Final Storage ............         0.000         0.000
  Continuity Error (%) .....        -0.196
  
  
  **************************           TSS            FT            NT
  Runoff Quality Continuity             kg            kg            kg
  **************************    ----------    ----------    ----------
  Initial Buildup ..........         0.000         0.000         0.000
  Surface Buildup ..........    351113.826       111.944       937.539
  Wet Deposition ...........         0.000         0.000         0.000
  Sweeping Removal .........         0.000         0.000         0.000
  Infiltration Loss ........         0.000         0.000         0.000
  BMP Removal ..............         0.000         0.000         0.000
  Surface Runoff ...........    344006.826       108.208       922.539
  Remaining Buildup ........      7107.000         3.736        15.000
  Continuity Error (%) .....         0.000         0.000         0.000
  
  
  **************************        Volume        Volume
  Flow Routing Continuity        hectare-m      10^6 ltr
  **************************     ---------     ---------
  Dry Weather Inflow .......         0.000         0.000
  Wet Weather Inflow .......        66.267       662.677
  Groundwater Inflow .......         0.000         0.000
  RDII Inflow ..............         0.000         0.000
  External Inflow ..........         0.000         0.000
  External Outflow .........        66.241       662.412
  Flooding Loss ............         0.002         0.021
  Evaporation Loss .........         0.000         0.000
  Exfiltration Loss ........         0.000         0.000
  Initial Stored Volume ....         0.000         0.000
  Final Stored Volume ......         0.000         0.000
  Continuity Error (%) .....         0.037
  
  
  **************************           TSS            FT            NT
  Quality Routing Continuity            kg            kg            kg
  **************************    ----------    ----------    ----------
  Dry Weather Inflow .......         0.000         0.000         0.000
  Wet Weather Inflow .......    344006.849       108.208       922.539
  Groundwater Inflow .......         0.000         0.000         0.000
  RDII Inflow ..............         0.000         0.000         0.000
  External Inflow ..........         0.000         0.000         0.000
  External Outflow .........    396786.844       121.872      1083.319
  Flooding Loss ............         0.000         0.000         0.000
  Exfiltration Loss ........         0.000         0.000         0.000
  Mass Reacted .............         0.000         0.000         0.000
  Initial Stored Mass ......         0.000         0.000         0.000
  Final Stored Mass ........         0.086         0.000         0.000
  Continuity Error (%) .....       -15.343       -12.627       -17.428
  
  
  ***************************
  Time-Step Critical Elements
  ***************************
  None
  
  
  ********************************
  Highest Flow Instability Indexes
  ********************************
  All links are stable.
  
  
  *************************
  Routing Time Step Summary
  *************************
  Minimum Time Step           :     2.26 sec
  Average Time Step           :    30.00 sec
  Maximum Time Step           :    30.00 sec
  Percent in Steady State     :     0.00
  Average Iterations per Step :     2.00
  Percent Not Converging      :     0.00
  Time Step Frequencies       :
     30.000 - 13.228 sec      :   100.00 %
     13.228 -  5.833 sec      :     0.00 %
      5.833 -  2.572 sec      :     0.00 %
      2.572 -  1.134 sec      :     0.00 %
      1.134 -  0.500 sec      :     0.00 %
  
  
  ***************************
  Subcatchment Runoff Summary
  ***************************
  
  ------------------------------------------------------------------------------------------------------------------------------
                            Total      Total      Total      Total     Imperv       Perv      Total       Total     Peak  Runoff
                           Precip      Runon       Evap      Infil     Runoff     Runoff     Runoff      Runoff   Runoff   Coeff
  Subcatchment                 mm         mm         mm         mm         mm         mm         mm    10^6 ltr      CMS
  ------------------------------------------------------------------------------------------------------------------------------
  A1                      1082.30       0.00     305.65     116.08     621.28      41.40     662.69       82.84     1.42   0.612
  A2                      1082.30       0.00     305.65     116.08     621.28      41.40     662.69       82.84     1.42   0.612
  A3                      1082.30       0.00     305.65     116.08     621.28      41.40     662.69       82.84     1.42   0.612
  A4                      1082.30       0.00     305.65     116.08     621.28      41.40     662.69       82.84     1.42   0.612
  A5                      1082.30       0.00     305.65     116.08     621.28      41.40     662.69       82.84     1.42   0.612
  A6                      1082.30       0.00     305.65     116.08     621.28      41.40     662.69       82.84     1.42   0.612
  A7                      1082.30       0.00     305.65     116.08     621.28      41.40     662.69       82.84     1.42   0.612
  A8                      1082.30       0.00     305.65     116.08     621.28      41.40     662.69       82.84     1.42   0.612
  

  ***********************
  LID Performance Summary
  ***********************

  --------------------------------------------------------------------------------------------------------------------
                                         Total      Evap     Infil   Surface    Drain    Initial     Final  Continuity
                                        Inflow      Loss      Loss   Outflow   Outflow   Storage   Storage       Error
  Subcatchment      LID Control             mm        mm        mm        mm        mm        mm        mm           %
  --------------------------------------------------------------------------------------------------------------------
  
  ****************************
  Subcatchment Washoff Summary
  ****************************
  
  --------------------------------------------------------------
                                 TSS            FT            NT
  Subcatchment                    kg            kg            kg
  --------------------------------------------------------------
  A1                       43000.853        13.526       115.317
  A2                       43000.853        13.526       115.317
  A3                       43000.853        13.526       115.317
  A4                       43000.853        13.526       115.317
  A5                       43000.853        13.526       115.317
  A6                       43000.853        13.526       115.317
  A7                       43000.853        13.526       115.317
  A8                       43000.853        13.526       115.317
  --------------------------------------------------------------
  System                  344006.826       108.208       922.539
  
  
  ******************
  Node Depth Summary
  ******************
  
  ---------------------------------------------------------------------------------
                                 Average  Maximum  Maximum  Time of Max    Reported
                                   Depth    Depth      HGL   Occurrence   Max Depth
  Node                 Type       Meters   Meters   Meters  days hr:min      Meters
  ---------------------------------------------------------------------------------
  J1                   JUNCTION     0.01     0.84   100.84   199  20:31        0.76
  J2                   JUNCTION     0.01     1.10    97.56   199  20:31        0.96
  J3                   JUNCTION     0.01     1.25    94.18   199  20:32        1.09
  J4                   JUNCTION     0.01     1.38    90.78   199  20:32        1.18
  J5                   JUNCTION     0.01     0.70   104.23   199  20:30        0.68
  J6                   JUNCTION     0.01     0.48   104.02   199  20:30        0.46
  J7                   JUNCTION     0.00     0.42   103.95   199  20:30        0.41
  J8                   JUNCTION     0.00     0.38   103.92   199  20:30        0.37
  O1                   OUTFALL      0.01     1.52    87.38   199  20:31        1.10
  
  
  *******************
  Node Inflow Summary
  *******************
  
  -------------------------------------------------------------------------------------------------
                                  Maximum  Maximum                  Lateral       Total        Flow
                                  Lateral    Total  Time of Max      Inflow      Inflow     Balance
                                   Inflow   Inflow   Occurrence      Volume      Volume       Error
  Node                 Type           CMS      CMS  days hr:min    10^6 ltr    10^6 ltr     Percent
  -------------------------------------------------------------------------------------------------
  J1                   JUNCTION     1.423    2.649   199  20:30        82.8         166      -0.002
  J2                   JUNCTION     1.423    5.252   199  20:30        82.8         331       0.026
  J3                   JUNCTION     1.423    7.702   199  20:30        82.8         497       0.022
  J4                   JUNCTION     1.423   10.128   199  20:31        82.8         663       0.048
  J5                   JUNCTION     1.423    1.423   199  20:30        82.8        82.8      -0.040
  J6                   JUNCTION     1.423    1.423   199  20:30        82.8        82.8      -0.078
  J7                   JUNCTION     1.423    1.423   199  20:30        82.8        82.8      -0.098
  J8                   JUNCTION     1.423    1.423   199  20:30        82.8        82.8      -0.109
  O1                   OUTFALL      0.000   10.119   199  20:33           0         662       0.000
  
  
  **********************
  Node Surcharge Summary
  **********************
  
  Surcharging occurs when water rises above the top of the highest conduit.
  ---------------------------------------------------------------------
                                               Max. Height   Min. Depth
                                   Hours       Above Crown    Below Rim
  Node                 Type      Surcharged         Meters       Meters
  ---------------------------------------------------------------------
  J5                   JUNCTION        0.04          0.000        0.000
  
  
  *********************
  Node Flooding Summary
  *********************
  
  Flooding refers to all water that overflows a node, whether it ponds or not.
  --------------------------------------------------------------------------
                                                             Total   Maximum
                                 Maximum   Time of Max       Flood    Ponded
                        Hours       Rate    Occurrence      Volume     Depth
  Node                 Flooded       CMS   days hr:min    10^6 ltr    Meters
  --------------------------------------------------------------------------
  J5                      0.04     0.205    199  20:30       0.021     0.000
  
  
  ***********************
  Outfall Loading Summary
  ***********************
  
  -----------------------------------------------------------------------------------------------------
                         Flow       Avg       Max       Total         Total         Total         Total
                         Freq      Flow      Flow      Volume           TSS            FT            NT
  Outfall Node           Pcnt       CMS       CMS    10^6 ltr            kg            kg            kg
  -----------------------------------------------------------------------------------------------------
  O1                    16.67     0.126    10.119     662.409    396815.063       121.879      1083.381
  -----------------------------------------------------------------------------------------------------
  System                16.67     0.126    10.119     662.409    396815.063       121.879      1083.381
  
  
  ********************
  Link Flow Summary
  ********************
  
  -----------------------------------------------------------------------------
                                 Maximum  Time of Max   Maximum    Max/    Max/
                                  |Flow|   Occurrence   |Veloc|    Full    Full
  Link                 Type          CMS  days hr:min     m/sec    Flow   Depth
  -----------------------------------------------------------------------------
  C1                   CONDUIT     1.236   199  20:33      4.17    1.03    1.00
  C2                   CONDUIT     1.391   199  20:30      6.13    0.82    0.85
  C3                   CONDUIT     1.393   199  20:30      4.24    0.67    0.80
  C4                   CONDUIT     1.400   199  20:30      4.40    0.58    0.78
  C5                   CONDUIT     2.501   199  20:31      4.30    1.05    0.96
  C6                   CONDUIT     5.072   199  20:33      4.78    1.06    0.97
  C7                   CONDUIT     7.624   199  20:32      5.33    1.06    0.96
  C8                   CONDUIT    10.119   199  20:33      5.99    1.06    0.95
  
  
  ***************************
  Flow Classification Summary
  ***************************
  
  -------------------------------------------------------------------------------------
                      Adjusted    ---------- Fraction of Time in Flow Class ---------- 
                       /Actual         Up    Down  Sub   Sup   Up    Down  Norm  Inlet 
  Conduit               Length    Dry  Dry   Dry   Crit  Crit  Crit  Crit  Ltd   Ctrl  
  -------------------------------------------------------------------------------------
  C1                      1.00   0.84  0.00  0.00  0.04  0.12  0.00  0.00  1.00  0.00
  C2                      1.00   0.84  0.01  0.00  0.08  0.07  0.00  0.00  1.00  0.00
  C3                      1.00   0.84  0.01  0.00  0.11  0.04  0.00  0.00  1.00  0.00
  C4                      1.00   0.32  0.52  0.00  0.13  0.03  0.00  0.00  1.00  0.00
  C5                      1.00   0.84  0.00  0.00  0.03  0.13  0.00  0.00  1.00  0.00
  C6                      1.00   0.84  0.00  0.00  0.02  0.14  0.00  0.00  1.00  0.00
  C7                      1.00   0.32  0.51  0.00  0.03  0.14  0.00  0.00  1.00  0.00
  C8                      1.00   0.32  0.00  0.00  0.51  0.17  0.00  0.00  0.04  0.00
  
  
  *************************
  Conduit Surcharge Summary
  *************************
  
  ----------------------------------------------------------------------------
                                                           Hours        Hours 
                         --------- Hours Full --------   Above Full   Capacity
  Conduit                Both Ends  Upstream  Dnstream   Normal Flow   Limited
  ----------------------------------------------------------------------------
  C1                          0.04      0.04      0.09      0.03         0.01
  C2                          0.01      0.01      0.29      0.01         0.01
  C3                          0.01      0.01      1.24      0.01         0.01
  C4                          0.01      0.01      1.97      0.01         0.01
  C5                          0.01      0.01      0.09      0.06         0.01
  C6                          0.01      0.01      0.06      0.06         0.01
  C7                          0.01      0.01      0.03      0.07         0.01
  C8                          0.01      0.01      0.01      0.06         0.01
  
  
  ***************************
  Link Pollutant Load Summary
  ***************************
  
  --------------------------------------------------------------
                                 TSS            FT            NT
  Link                            kg            kg            kg
  --------------------------------------------------------------
  C1                       5.100e+04        15.492       142.292
  C2                       5.309e+04        16.062       148.398
  C3                       5.431e+04        16.427       151.616
  C4                       5.512e+04        16.693       153.498
  C5                       1.010e+05        30.769       279.988
  C6                       1.986e+05        60.835       546.165
  C7                       2.980e+05        91.405       816.556
  C8                       3.968e+05       121.879      1083.381
  

  Analysis begun on:  Fri Nov 26 15:58:24 2021
  Analysis ended on:  Fri Nov 26 15:58:34 2021
  Total elapsed time: 00:00:10